Circuit: * D:\Work\UFSM\Disciplinas\Eletroacustica_1\exemplos_computacionais_eletroI\u4_circuitos_acusticos\ex5_duplacaixa_dutada\EA_DuplaCaixaDutada.asc

WARNING: Node N001 is floating.


Date: Mon Oct 18 14:28:41 2021
Total elapsed time: 0.047 seconds.

tnom = 27
temp = 27
method = trap
totiter = 0
traniter = 0
tranpoints = 0
accept = 0
rejected = 0
matrix size = 5
fillins = 0
solver = Normal

