Circuit: * D:\Work\UFSM\Disciplinas\Eletroacustica_1\exemplos_computacionais_eletroI\u4_circuitos_acusticos\ex4_muffler\muffler.asc


Date: Wed Dec 01 09:01:48 2021
Total elapsed time: 0.061 seconds.

tnom = 27
temp = 27
method = trap
totiter = 0
traniter = 0
tranpoints = 0
accept = 0
rejected = 0
matrix size = 7
fillins = 0
solver = Normal

