Circuit: * D:\Work\UFSM\Disciplinas\Eletroacustica_1\exemplos_computacionais_eletroI\u5_acoplamento_mec_ac\Pistao_caixa_baffleinfinito\EA_EX7_PistaoCaixaSelada_Referenciado.asc

WARNING: Node N004 is floating.


Date: Tue Oct 19 16:05:14 2021
Total elapsed time: 0.057 seconds.

tnom = 27
temp = 27
method = trap
totiter = 0
traniter = 0
tranpoints = 0
accept = 0
rejected = 0
matrix size = 7
fillins = 0
solver = Normal

