Circuit: * D:\Work\UFSM\Disciplinas\Eletroacustica_1\exemplos_computacionais_eletroI\u5_acoplamento_mec_ac\Pistao_caixa_baffleinfinito\EA_EX7_PistaoCaixaSelada.asc


Date: Sat Nov 13 13:16:35 2021
Total elapsed time: 0.048 seconds.

tnom = 27
temp = 27
method = trap
totiter = 0
traniter = 0
tranpoints = 0
accept = 0
rejected = 0
matrix size = 10
fillins = 9
solver = Normal

