Circuit: * D:\Work\UFSM\Disciplinas\Eletroacustica_1\exemplos_computacionais_eletroI\u3_circuitos_mecanicos\ex1_massamola_direto.asc


Date: Mon Oct 18 14:22:23 2021
Total elapsed time: 0.125 seconds.

tnom = 27
temp = 27
method = trap
totiter = 0
traniter = 0
tranpoints = 0
accept = 0
rejected = 0
matrix size = 4
fillins = 1
solver = Normal

