Circuit: * D:\Work\UFSM\Disciplinas\Eletroacustica_1\exemplos_computacionais_eletroI\u4_circuitos_acusticos\ex3_garrafa\EA_Garrafa.asc


Date: Mon Oct 18 14:26:06 2021
Total elapsed time: 0.047 seconds.

tnom = 27
temp = 27
method = trap
totiter = 0
traniter = 0
tranpoints = 0
accept = 0
rejected = 0
matrix size = 4
fillins = 0
solver = Normal

