Circuit: * D:\Work\UFSM\Disciplinas\Eletroacustica_1\exemplos_computacionais_eletroI\u4_circuitos_acusticos\ex2_impedancia_radiacao_pistaocil\EA_PistaoCil.asc


Date: Mon Oct 18 14:25:49 2021
Total elapsed time: 0.016 seconds.

tnom = 27
temp = 27
method = trap
totiter = 0
traniter = 0
tranpoints = 0
accept = 0
rejected = 0
matrix size = 3
fillins = 1
solver = Normal

