Circuit: * D:\Work\UFSM\Disciplinas\Eletroacustica_1\exemplos_computacionais_eletroI\u7_microfones\mic_pressao_dinamico\mic_pres_dinamico.asc


Date: Wed Dec 15 14:32:10 2021
Total elapsed time: 0.037 seconds.

tnom = 27
temp = 27
method = trap
totiter = 0
traniter = 0
tranpoints = 0
accept = 0
rejected = 0
matrix size = 15
fillins = 0
solver = Normal

