Circuit: * D:\Work\UFSM\Disciplinas\Eletroacustica_1\exemplos_computacionais_eletroI\u6_acoplamento_total\ex1_FalanteLivre\ex4_Falante_acoplamento_eldireto.asc


Date: Mon Oct 18 19:01:54 2021
Total elapsed time: 0.094 seconds.

tnom = 27
temp = 27
method = trap
totiter = 0
traniter = 0
tranpoints = 0
accept = 0
rejected = 0
matrix size = 12
fillins = 1
solver = Normal

