Circuit: * D:\Work\UFSM\Disciplinas\Eletroacustica_1\exemplos_computacionais_eletroI\u7_microfones\mic_pressao_capacitivo\cap_mic_cap_full_transformers_circuit_refac.asc

WARNING: Node N011 is floating.

WARNING: Less than two connections to node N011.  This node is used by CE0.

Date: Wed Dec 15 09:04:44 2021
Total elapsed time: 0.053 seconds.

tnom = 27
temp = 27
method = trap
totiter = 0
traniter = 0
tranpoints = 0
accept = 0
rejected = 0
matrix size = 12
fillins = 3
solver = Normal

